<?xml version="1.0" encoding="UTF-8"?>

<!-- generated on 2023-04-22 22:07:35 by Eclipse SUMO sumo Version 1.16.0
-->

<configuration xmlns:xsi="http://www.w3.org/2001/XMLSchema-instance" xsi:noNamespaceSchemaLocation="http://sumo.dlr.de/xsd/sumoConfiguration.xsd">

    <input>
        <net-file value="roundabout.net.xml"/>
    </input>

</configuration>
