<?xml version="1.0" encoding="UTF-8"?>

<!-- generated on 2023-04-23 00:00:40 by Eclipse SUMO netedit Version 1.16.0
-->

<routes xmlns:xsi="http://www.w3.org/2001/XMLSchema-instance" xsi:noNamespaceSchemaLocation="http://sumo.dlr.de/xsd/routes_file.xsd">
    <!-- Routes -->
    <route id="r_0" edges="-E17 E16 E16.32 E10 E10.22 E10.50 E11 E12 E120"/>
    <route id="r_1" edges="-E15 E18 -E14 -E14.29 -E14.72 -E13 -E130 -E12 -E12.46"/>
    <!-- Vehicles, persons and containers (sorted by depart) -->
    <trip id="t_0" depart="0.00" from="-E17" to="E120"/>
    <trip id="t_1" depart="0.00" from="-E15" to="-E12.46"/>
</routes>
